Version 4
SHEET 1 2688 2848
WIRE 96 0 64 0
WIRE 224 0 176 0
WIRE 256 0 224 0
WIRE 400 0 336 0
WIRE -688 96 -688 16
WIRE -688 192 -688 176
WIRE -688 192 -752 192
WIRE 224 192 224 0
WIRE 256 192 224 192
WIRE -688 208 -688 192
WIRE 400 208 400 0
WIRE 400 208 320 208
WIRE 528 208 400 208
WIRE -752 224 -752 192
WIRE -112 224 -144 224
WIRE 0 224 -32 224
WIRE 32 224 0 224
WIRE 144 224 144 208
WIRE 144 224 96 224
WIRE 256 224 144 224
WIRE 144 240 144 224
WIRE -144 256 -144 224
WIRE 400 320 400 208
WIRE -688 368 -688 288
WIRE -560 448 -608 448
WIRE -496 448 -560 448
WIRE -384 448 -432 448
WIRE -608 496 -608 448
WIRE -384 512 -384 448
WIRE 0 528 0 224
WIRE 128 560 128 544
WIRE 128 560 48 560
WIRE 240 560 128 560
WIRE 128 576 128 560
WIRE 400 608 400 384
WIRE 400 608 304 608
WIRE 400 640 400 608
WIRE 400 736 400 720
WIRE 528 736 400 736
WIRE 400 752 400 736
WIRE 0 832 0 624
WIRE 128 832 128 640
WIRE 240 832 240 656
FLAG -752 224 0
FLAG -688 16 +15V
FLAG -688 368 -15V
FLAG -608 576 0
FLAG -560 448 IN
FLAG 528 208 OUT
FLAG 288 176 +15V
FLAG -384 592 0
FLAG 0 0 0
FLAG 528 736 OUT2
FLAG 144 128 +15V
FLAG 128 464 +15V
FLAG -144 336 0
FLAG 0 832 -15V
FLAG 128 832 -15V
FLAG 240 832 -15V
FLAG 144 320 -15V
FLAG 288 240 -15V
FLAG 400 832 0
SYMBOL voltage -688 80 R0
SYMATTR InstName V1
SYMATTR Value 15v
SYMBOL voltage -688 192 R0
SYMATTR InstName V2
SYMATTR Value 15v
SYMBOL voltage -608 480 M0
WINDOW 123 0 0 Left 0
WINDOW 39 0 0 Left 0
SYMATTR InstName V3
SYMATTR Value PULSE(4 {13-freq/240} 0 {1/freq} 10u 0 {1/freq})
SYMBOL cap -432 432 R90
WINDOW 0 0 32 VBottom 2
WINDOW 3 32 32 VTop 2
SYMATTR InstName C1
SYMATTR Value 10µ
SYMBOL Opamps\\opamp2 288 144 R0
WINDOW 3 16 8 Left 2
SYMATTR Value LM741
SYMATTR InstName U2
SYMBOL res 352 -16 R90
WINDOW 0 0 56 VBottom 2
WINDOW 3 32 56 VTop 2
SYMATTR InstName R1
SYMATTR Value 33k
SYMBOL res 192 -16 R90
WINDOW 0 0 56 VBottom 2
WINDOW 3 32 56 VTop 2
SYMATTR InstName R2
SYMATTR Value 470
SYMBOL res -368 608 R180
WINDOW 0 36 76 Left 2
WINDOW 3 36 40 Left 2
SYMATTR InstName R7
SYMATTR Value 47k
SYMBOL cap 64 16 M270
WINDOW 0 32 32 VTop 2
WINDOW 3 0 32 VBottom 2
SYMATTR InstName C2
SYMATTR Value 10µ
SYMBOL cap 384 320 R0
SYMATTR InstName C3
SYMATTR Value 10µ
SYMBOL res 384 624 R0
SYMATTR InstName R4
SYMATTR Value 5k
SYMBOL res 384 736 R0
SYMATTR InstName R5
SYMATTR Value 5k
SYMBOL npn 304 560 M0
SYMATTR InstName Q1
SYMATTR Value 2n3904
SYMBOL cap 112 576 R0
SYMATTR InstName C4
SYMATTR Value 10µ
SYMBOL res 112 448 R0
SYMATTR InstName R6
SYMATTR Value 100k
SYMBOL res 128 224 R0
SYMATTR InstName R8
SYMATTR Value 240k
SYMBOL res 128 112 R0
SYMATTR InstName R9
SYMATTR Value 240k
SYMBOL pjf 48 624 R180
SYMATTR InstName J1
SYMATTR Value J176
SYMBOL cap 96 208 R90
WINDOW 0 0 32 VBottom 2
WINDOW 3 32 32 VTop 2
SYMATTR InstName C5
SYMATTR Value 10µ
SYMBOL res -128 240 R270
WINDOW 0 32 56 VTop 2
WINDOW 3 0 56 VBottom 2
SYMATTR InstName R10
SYMATTR Value 120k
SYMBOL voltage -144 240 M0
WINDOW 123 0 0 Left 0
WINDOW 39 0 0 Left 0
SYMATTR InstName V4
SYMATTR Value SINE(0 {13-freq/240} {freq})
TEXT -1672 -256 Left 2 !* TL082 OPERATIONAL AMPLIFIER "MACROMODEL" SUBCIRCUIT\n* CREATED USING PARTS RELEASE 4.01 ON 06/16/89 AT 13:08\n* (REV N/A)      SUPPLY VOLTAGE: +/-15V\n* CONNECTIONS:   NON-INVERTING INPUT\n*                | INVERTING INPUT\n*                | | POSITIVE POWER SUPPLY\n*                | | | NEGATIVE POWER SUPPLY\n*                | | | | OUTPUT\n*                | | | | |\n.SUBCKT TL082    1 2 3 4 5\n*\n  C1   11 12 3.498E-12\n  C2    6  7 15.00E-12\n  DC    5 53 DX\n  DE   54  5 DX\n  DLP  90 91 DX\n  DLN  92 90 DX\n  DP    4  3 DX\n  EGND 99  0 POLY(2) (3,0) (4,0) 0 .5 .5\n  FB    7 99 POLY(5) VB VC VE VLP VLN 0 4.715E6 -5E6 5E6 5E6 -5E6\n  GA    6  0 11 12 282.8E-6\n  GCM   0  6 10 99 8.942E-9\n  ISS   3 10 DC 195.0E-6\n  HLIM 90  0 VLIM 1K\n  J1   11  2 10 JX\n  J2   12  1 10 JX\n  R2    6  9 100.0E3\n  RD1   4 11 3.536E3\n  RD2   4 12 3.536E3\n  RO1   8  5 150\n  RO2   7 99 150\n  RP    3  4 2.143E3\n  RSS  10 99 1.026E6\n  VB    9  0 DC 0\n  VC    3 53 DC 2.200\n  VE   54  4 DC 2.200\n  VLIM  7  8 DC 0\n  VLP  91  0 DC 25\n  VLN   0 92 DC 25\n.MODEL DX D(IS=800.0E-18)\n.MODEL JX PJF(IS=15.00E-12 BETA=270.1E-6 VTO=-1)\n.ENDS
TEXT -552 48 Left 2 !.tran 0 6000ms 0 startup
TEXT -2496 -248 Left 2 !*//////////////////////////////////////////////////////////////////////\n* (C) National Semiconductor, Inc.\n* Models developed and under copyright by:\n* National Semiconductor, Inc.  \n \n*/////////////////////////////////////////////////////////////////////\n* Legal Notice: This material is intended for free software support.\n* The file may be copied, and distributed; however, reselling the \n*  material is illegal\n \n*////////////////////////////////////////////////////////////////////\n* For ordering or technical information on these models, contact:\n* National Semiconductor's Customer Response Center\n*                 7:00 A.M.--7:00 P.M.  U.S. Central Time\n*                                (800) 272-9959\n* For Applications support, contact the Internet address:\n*  amps-apps@galaxy.nsc.com\n \n*//////////////////////////////////////////////////////////\n*LM741 OPERATIONAL AMPLIFIER MACRO-MODEL\n*//////////////////////////////////////////////////////////\n*\n* connections:      non-inverting input\n*                   |   inverting input\n*                   |   |   positive power supply\n*                   |   |   |   negative power supply\n*                   |   |   |   |   output\n*                   |   |   |   |   |\n*                   |   |   |   |   |\n.SUBCKT LM741    1   2  99  50  28\n*\n*Features:\n*Improved performance over industry standards\n*Plug-in replacement for LM709,LM201,MC1439,748\n*Input and output overload protection\n*\n****************INPUT STAGE**************\n*\nIOS 2 1 20N\n*^Input offset current\nR1 1 3 250K\nR2 3 2 250K\nI1 4 50 100U\nR3 5 99 517\nR4 6 99 517\nQ1 5 2 4 QX\nQ2 6 7 4 QX\n*Fp2=2.55 MHz\nC4 5 6 60.3614P\n*\n***********COMMON MODE EFFECT***********\n*\nI2 99 50 1.6MA\n*^Quiescent supply current\nEOS 7 1 POLY(1) 16 49 1E-3 1\n*Input offset voltage.^\nR8 99 49 40K\nR9 49 50 40K\n*\n*********OUTPUT VOLTAGE LIMITING********\nV2 99 8 1.63\nD1 9 8 DX\nD2 10 9 DX\nV3 10 50 1.63\n*\n**************SECOND STAGE**************\n*\nEH 99 98 99 49 1\nG1 98 9 5 6 2.1E-3\n*Fp1=5 Hz\nR5 98 9 95.493MEG\nC3 98 9 333.33P\n*\n***************POLE STAGE***************\n*\n*Fp=30 MHz\nG3 98 15 9 49 1E-6\nR12 98 15 1MEG\nC5 98 15 5.3052E-15\n*\n*********COMMON-MODE ZERO STAGE*********\n*\n*Fpcm=300 Hz\nG4 98 16 3 49 3.1623E-8\nL2 98 17 530.5M\nR13 17 16 1K\n*\n**************OUTPUT STAGE**************\n*\nF6 50 99 POLY(1) V6 450U 1\nE1 99 23 99 15 1\nR16 24 23 25\nD5 26 24 DX\nV6 26 22 0.65V\nR17 23 25 25\nD6 25 27 DX\nV7 22 27 0.65V\nV5 22 21 0.18V\nD4 21 15 DX\nV4 20 22 0.18V\nD3 15 20 DX\nL3 22 28 100P\nRL3 22 28 100K\n*\n***************MODELS USED**************\n*\n.MODEL DX D(IS=1E-15)\n.MODEL QX NPN(BF=625)\n*\n.ENDS\n*$
TEXT -552 0 Left 2 !.step param freq list 220 440 880
